LTspice 24.1.5 for Windows
Circuit: C:\Users\cirov\OneDrive\Documents\MATERIAS\SRA\TP4.net
Start Time: Thu Feb 19 02:35:23 2026
solver = Normal
Maximum thread count: 4
tnom = 27
temp = 27
method = trap
Direct Newton iteration for .op point succeeded.
.step r_tune=11000 run=1
.step r_tune=11500 run=1
.step r_tune=12000 run=1
.step r_tune=12500 run=1
.step r_tune=13000 run=1
.step r_tune=13500 run=1
.step r_tune=14000 run=1
.step r_tune=14500 run=1
.step r_tune=15000 run=1
.step r_tune=11000 run=2
.step r_tune=11500 run=2
.step r_tune=12000 run=2
.step r_tune=12500 run=2
.step r_tune=13000 run=2
.step r_tune=13500 run=2
.step r_tune=14000 run=2
.step r_tune=14500 run=2
.step r_tune=15000 run=2
.step r_tune=11000 run=3
.step r_tune=11500 run=3
.step r_tune=12000 run=3
.step r_tune=12500 run=3
.step r_tune=13000 run=3
.step r_tune=13500 run=3
.step r_tune=14000 run=3
.step r_tune=14500 run=3
.step r_tune=15000 run=3
.step r_tune=11000 run=4
.step r_tune=11500 run=4
.step r_tune=12000 run=4
.step r_tune=12500 run=4
.step r_tune=13000 run=4
.step r_tune=13500 run=4
.step r_tune=14000 run=4
.step r_tune=14500 run=4
.step r_tune=15000 run=4
.step r_tune=11000 run=5
.step r_tune=11500 run=5
.step r_tune=12000 run=5
.step r_tune=12500 run=5
.step r_tune=13000 run=5
.step r_tune=13500 run=5
.step r_tune=14000 run=5
.step r_tune=14500 run=5
.step r_tune=15000 run=5
.step r_tune=11000 run=6
.step r_tune=11500 run=6
.step r_tune=12000 run=6
.step r_tune=12500 run=6
.step r_tune=13000 run=6
.step r_tune=13500 run=6
.step r_tune=14000 run=6
.step r_tune=14500 run=6
.step r_tune=15000 run=6
.step r_tune=11000 run=7
.step r_tune=11500 run=7
.step r_tune=12000 run=7
.step r_tune=12500 run=7
.step r_tune=13000 run=7
.step r_tune=13500 run=7
.step r_tune=14000 run=7
.step r_tune=14500 run=7
.step r_tune=15000 run=7
.step r_tune=11000 run=8
.step r_tune=11500 run=8
.step r_tune=12000 run=8
.step r_tune=12500 run=8
.step r_tune=13000 run=8
.step r_tune=13500 run=8
.step r_tune=14000 run=8
.step r_tune=14500 run=8
.step r_tune=15000 run=8
.step r_tune=11000 run=9
.step r_tune=11500 run=9
.step r_tune=12000 run=9
.step r_tune=12500 run=9
.step r_tune=13000 run=9
.step r_tune=13500 run=9
.step r_tune=14000 run=9
.step r_tune=14500 run=9
.step r_tune=15000 run=9
.step r_tune=11000 run=10
.step r_tune=11500 run=10
.step r_tune=12000 run=10
.step r_tune=12500 run=10
.step r_tune=13000 run=10
.step r_tune=13500 run=10
.step r_tune=14000 run=10
.step r_tune=14500 run=10
.step r_tune=15000 run=10
.step r_tune=11000 run=11
.step r_tune=11500 run=11
.step r_tune=12000 run=11
.step r_tune=12500 run=11
.step r_tune=13000 run=11
.step r_tune=13500 run=11
.step r_tune=14000 run=11
.step r_tune=14500 run=11
.step r_tune=15000 run=11
.step r_tune=11000 run=12
.step r_tune=11500 run=12
.step r_tune=12000 run=12
.step r_tune=12500 run=12
.step r_tune=13000 run=12
.step r_tune=13500 run=12
.step r_tune=14000 run=12
.step r_tune=14500 run=12
.step r_tune=15000 run=12
.step r_tune=11000 run=13
.step r_tune=11500 run=13
.step r_tune=12000 run=13
.step r_tune=12500 run=13
.step r_tune=13000 run=13
.step r_tune=13500 run=13
.step r_tune=14000 run=13
.step r_tune=14500 run=13
.step r_tune=15000 run=13
.step r_tune=11000 run=14
.step r_tune=11500 run=14
.step r_tune=12000 run=14
.step r_tune=12500 run=14
.step r_tune=13000 run=14
.step r_tune=13500 run=14
.step r_tune=14000 run=14
.step r_tune=14500 run=14
.step r_tune=15000 run=14
.step r_tune=11000 run=15
.step r_tune=11500 run=15
.step r_tune=12000 run=15
.step r_tune=12500 run=15
.step r_tune=13000 run=15
.step r_tune=13500 run=15
.step r_tune=14000 run=15
.step r_tune=14500 run=15
.step r_tune=15000 run=15
.step r_tune=11000 run=16
.step r_tune=11500 run=16
.step r_tune=12000 run=16
.step r_tune=12500 run=16
.step r_tune=13000 run=16
.step r_tune=13500 run=16
.step r_tune=14000 run=16
.step r_tune=14500 run=16
.step r_tune=15000 run=16
.step r_tune=11000 run=17
.step r_tune=11500 run=17
.step r_tune=12000 run=17
.step r_tune=12500 run=17
.step r_tune=13000 run=17
.step r_tune=13500 run=17
.step r_tune=14000 run=17
.step r_tune=14500 run=17
.step r_tune=15000 run=17
.step r_tune=11000 run=18
.step r_tune=11500 run=18
.step r_tune=12000 run=18
.step r_tune=12500 run=18
.step r_tune=13000 run=18
.step r_tune=13500 run=18
.step r_tune=14000 run=18
.step r_tune=14500 run=18
.step r_tune=15000 run=18
.step r_tune=11000 run=19
.step r_tune=11500 run=19
.step r_tune=12000 run=19
.step r_tune=12500 run=19
.step r_tune=13000 run=19
.step r_tune=13500 run=19
.step r_tune=14000 run=19
.step r_tune=14500 run=19
.step r_tune=15000 run=19
.step r_tune=11000 run=20
.step r_tune=11500 run=20
.step r_tune=12000 run=20
.step r_tune=12500 run=20
.step r_tune=13000 run=20
.step r_tune=13500 run=20
.step r_tune=14000 run=20
.step r_tune=14500 run=20
.step r_tune=15000 run=20
.step r_tune=11000 run=21
.step r_tune=11500 run=21
.step r_tune=12000 run=21
.step r_tune=12500 run=21
.step r_tune=13000 run=21
.step r_tune=13500 run=21
.step r_tune=14000 run=21
.step r_tune=14500 run=21
.step r_tune=15000 run=21
.step r_tune=11000 run=22
.step r_tune=11500 run=22
.step r_tune=12000 run=22
.step r_tune=12500 run=22
.step r_tune=13000 run=22
.step r_tune=13500 run=22
.step r_tune=14000 run=22
.step r_tune=14500 run=22
.step r_tune=15000 run=22
.step r_tune=11000 run=23
.step r_tune=11500 run=23
.step r_tune=12000 run=23
.step r_tune=12500 run=23
.step r_tune=13000 run=23
.step r_tune=13500 run=23
.step r_tune=14000 run=23
.step r_tune=14500 run=23
.step r_tune=15000 run=23
.step r_tune=11000 run=24
.step r_tune=11500 run=24
.step r_tune=12000 run=24
.step r_tune=12500 run=24
.step r_tune=13000 run=24
.step r_tune=13500 run=24
.step r_tune=14000 run=24
.step r_tune=14500 run=24
.step r_tune=15000 run=24
.step r_tune=11000 run=25
.step r_tune=11500 run=25
.step r_tune=12000 run=25
.step r_tune=12500 run=25
.step r_tune=13000 run=25
.step r_tune=13500 run=25
.step r_tune=14000 run=25
.step r_tune=14500 run=25
.step r_tune=15000 run=25
.step r_tune=11000 run=26
.step r_tune=11500 run=26
.step r_tune=12000 run=26
.step r_tune=12500 run=26
.step r_tune=13000 run=26
.step r_tune=13500 run=26
.step r_tune=14000 run=26
.step r_tune=14500 run=26
.step r_tune=15000 run=26
.step r_tune=11000 run=27
.step r_tune=11500 run=27
.step r_tune=12000 run=27
.step r_tune=12500 run=27
.step r_tune=13000 run=27
.step r_tune=13500 run=27
.step r_tune=14000 run=27
.step r_tune=14500 run=27
.step r_tune=15000 run=27
.step r_tune=11000 run=28
.step r_tune=11500 run=28
.step r_tune=12000 run=28
.step r_tune=12500 run=28
.step r_tune=13000 run=28
.step r_tune=13500 run=28
.step r_tune=14000 run=28
.step r_tune=14500 run=28
.step r_tune=15000 run=28
.step r_tune=11000 run=29
.step r_tune=11500 run=29
.step r_tune=12000 run=29
.step r_tune=12500 run=29
.step r_tune=13000 run=29
.step r_tune=13500 run=29
.step r_tune=14000 run=29
.step r_tune=14500 run=29
.step r_tune=15000 run=29
.step r_tune=11000 run=30
.step r_tune=11500 run=30
.step r_tune=12000 run=30
.step r_tune=12500 run=30
.step r_tune=13000 run=30
.step r_tune=13500 run=30
.step r_tune=14000 run=30
.step r_tune=14500 run=30
.step r_tune=15000 run=30
.step r_tune=11000 run=31
.step r_tune=11500 run=31
.step r_tune=12000 run=31
.step r_tune=12500 run=31
.step r_tune=13000 run=31
.step r_tune=13500 run=31
.step r_tune=14000 run=31
.step r_tune=14500 run=31
.step r_tune=15000 run=31
.step r_tune=11000 run=32
.step r_tune=11500 run=32
.step r_tune=12000 run=32
.step r_tune=12500 run=32
.step r_tune=13000 run=32
.step r_tune=13500 run=32
.step r_tune=14000 run=32
.step r_tune=14500 run=32
.step r_tune=15000 run=32
.step r_tune=11000 run=33
.step r_tune=11500 run=33
.step r_tune=12000 run=33
.step r_tune=12500 run=33
.step r_tune=13000 run=33
.step r_tune=13500 run=33
.step r_tune=14000 run=33
.step r_tune=14500 run=33
.step r_tune=15000 run=33
.step r_tune=11000 run=34
.step r_tune=11500 run=34
.step r_tune=12000 run=34
.step r_tune=12500 run=34
.step r_tune=13000 run=34
.step r_tune=13500 run=34
.step r_tune=14000 run=34
.step r_tune=14500 run=34
.step r_tune=15000 run=34
.step r_tune=11000 run=35
.step r_tune=11500 run=35
.step r_tune=12000 run=35
.step r_tune=12500 run=35
.step r_tune=13000 run=35
.step r_tune=13500 run=35
.step r_tune=14000 run=35
.step r_tune=14500 run=35
.step r_tune=15000 run=35
.step r_tune=11000 run=36
.step r_tune=11500 run=36
.step r_tune=12000 run=36
.step r_tune=12500 run=36
.step r_tune=13000 run=36
.step r_tune=13500 run=36
.step r_tune=14000 run=36
.step r_tune=14500 run=36
.step r_tune=15000 run=36
.step r_tune=11000 run=37
.step r_tune=11500 run=37
.step r_tune=12000 run=37
.step r_tune=12500 run=37
.step r_tune=13000 run=37
.step r_tune=13500 run=37
.step r_tune=14000 run=37
.step r_tune=14500 run=37
.step r_tune=15000 run=37
.step r_tune=11000 run=38
.step r_tune=11500 run=38
.step r_tune=12000 run=38
.step r_tune=12500 run=38
.step r_tune=13000 run=38
.step r_tune=13500 run=38
.step r_tune=14000 run=38
.step r_tune=14500 run=38
.step r_tune=15000 run=38
.step r_tune=11000 run=39
.step r_tune=11500 run=39
.step r_tune=12000 run=39
.step r_tune=12500 run=39
.step r_tune=13000 run=39
.step r_tune=13500 run=39
.step r_tune=14000 run=39
.step r_tune=14500 run=39
.step r_tune=15000 run=39
.step r_tune=11000 run=40
.step r_tune=11500 run=40
.step r_tune=12000 run=40
.step r_tune=12500 run=40
.step r_tune=13000 run=40
.step r_tune=13500 run=40
.step r_tune=14000 run=40
.step r_tune=14500 run=40
.step r_tune=15000 run=40
.step r_tune=11000 run=41
.step r_tune=11500 run=41
.step r_tune=12000 run=41
.step r_tune=12500 run=41
.step r_tune=13000 run=41
.step r_tune=13500 run=41
.step r_tune=14000 run=41
.step r_tune=14500 run=41
.step r_tune=15000 run=41
.step r_tune=11000 run=42
.step r_tune=11500 run=42
.step r_tune=12000 run=42
.step r_tune=12500 run=42
.step r_tune=13000 run=42
.step r_tune=13500 run=42
.step r_tune=14000 run=42
.step r_tune=14500 run=42
.step r_tune=15000 run=42
.step r_tune=11000 run=43
.step r_tune=11500 run=43
.step r_tune=12000 run=43
.step r_tune=12500 run=43
.step r_tune=13000 run=43
.step r_tune=13500 run=43
.step r_tune=14000 run=43
.step r_tune=14500 run=43
.step r_tune=15000 run=43
.step r_tune=11000 run=44
.step r_tune=11500 run=44
.step r_tune=12000 run=44
.step r_tune=12500 run=44
.step r_tune=13000 run=44
.step r_tune=13500 run=44
.step r_tune=14000 run=44
.step r_tune=14500 run=44
.step r_tune=15000 run=44
.step r_tune=11000 run=45
.step r_tune=11500 run=45
.step r_tune=12000 run=45
.step r_tune=12500 run=45
.step r_tune=13000 run=45
.step r_tune=13500 run=45
.step r_tune=14000 run=45
.step r_tune=14500 run=45
.step r_tune=15000 run=45
.step r_tune=11000 run=46
.step r_tune=11500 run=46
.step r_tune=12000 run=46
.step r_tune=12500 run=46
.step r_tune=13000 run=46
.step r_tune=13500 run=46
.step r_tune=14000 run=46
.step r_tune=14500 run=46
.step r_tune=15000 run=46
.step r_tune=11000 run=47
.step r_tune=11500 run=47
.step r_tune=12000 run=47
.step r_tune=12500 run=47
.step r_tune=13000 run=47
.step r_tune=13500 run=47
.step r_tune=14000 run=47
.step r_tune=14500 run=47
.step r_tune=15000 run=47
.step r_tune=11000 run=48
.step r_tune=11500 run=48
.step r_tune=12000 run=48
.step r_tune=12500 run=48
.step r_tune=13000 run=48
.step r_tune=13500 run=48
.step r_tune=14000 run=48
.step r_tune=14500 run=48
.step r_tune=15000 run=48
.step r_tune=11000 run=49
.step r_tune=11500 run=49
.step r_tune=12000 run=49
.step r_tune=12500 run=49
.step r_tune=13000 run=49
.step r_tune=13500 run=49
.step r_tune=14000 run=49
.step r_tune=14500 run=49
.step r_tune=15000 run=49
.step r_tune=11000 run=50
.step r_tune=11500 run=50
.step r_tune=12000 run=50
.step r_tune=12500 run=50
.step r_tune=13000 run=50
.step r_tune=13500 run=50
.step r_tune=14000 run=50
.step r_tune=14500 run=50
.step r_tune=15000 run=50
.step r_tune=11000 run=51
.step r_tune=11500 run=51
.step r_tune=12000 run=51
.step r_tune=12500 run=51
.step r_tune=13000 run=51
.step r_tune=13500 run=51
.step r_tune=14000 run=51
.step r_tune=14500 run=51
.step r_tune=15000 run=51
.step r_tune=11000 run=52
.step r_tune=11500 run=52
.step r_tune=12000 run=52
.step r_tune=12500 run=52
.step r_tune=13000 run=52
.step r_tune=13500 run=52
.step r_tune=14000 run=52
.step r_tune=14500 run=52
.step r_tune=15000 run=52
.step r_tune=11000 run=53
.step r_tune=11500 run=53
.step r_tune=12000 run=53
.step r_tune=12500 run=53
.step r_tune=13000 run=53
.step r_tune=13500 run=53
.step r_tune=14000 run=53
.step r_tune=14500 run=53
.step r_tune=15000 run=53
.step r_tune=11000 run=54
.step r_tune=11500 run=54
.step r_tune=12000 run=54
.step r_tune=12500 run=54
.step r_tune=13000 run=54
.step r_tune=13500 run=54
.step r_tune=14000 run=54
.step r_tune=14500 run=54
.step r_tune=15000 run=54
.step r_tune=11000 run=55
.step r_tune=11500 run=55
.step r_tune=12000 run=55
.step r_tune=12500 run=55
.step r_tune=13000 run=55
.step r_tune=13500 run=55
.step r_tune=14000 run=55
.step r_tune=14500 run=55
.step r_tune=15000 run=55
.step r_tune=11000 run=56
.step r_tune=11500 run=56
.step r_tune=12000 run=56
.step r_tune=12500 run=56
.step r_tune=13000 run=56
.step r_tune=13500 run=56
.step r_tune=14000 run=56
.step r_tune=14500 run=56
.step r_tune=15000 run=56
.step r_tune=11000 run=57
.step r_tune=11500 run=57
.step r_tune=12000 run=57
.step r_tune=12500 run=57
.step r_tune=13000 run=57
.step r_tune=13500 run=57
.step r_tune=14000 run=57
.step r_tune=14500 run=57
.step r_tune=15000 run=57
.step r_tune=11000 run=58
.step r_tune=11500 run=58
.step r_tune=12000 run=58
.step r_tune=12500 run=58
.step r_tune=13000 run=58
.step r_tune=13500 run=58
.step r_tune=14000 run=58
.step r_tune=14500 run=58
.step r_tune=15000 run=58
.step r_tune=11000 run=59
.step r_tune=11500 run=59
.step r_tune=12000 run=59
.step r_tune=12500 run=59
.step r_tune=13000 run=59
.step r_tune=13500 run=59
.step r_tune=14000 run=59
.step r_tune=14500 run=59
.step r_tune=15000 run=59
.step r_tune=11000 run=60
.step r_tune=11500 run=60
.step r_tune=12000 run=60
.step r_tune=12500 run=60
.step r_tune=13000 run=60
.step r_tune=13500 run=60
.step r_tune=14000 run=60
.step r_tune=14500 run=60
.step r_tune=15000 run=60
.step r_tune=11000 run=61
.step r_tune=11500 run=61
.step r_tune=12000 run=61
.step r_tune=12500 run=61
.step r_tune=13000 run=61
.step r_tune=13500 run=61
.step r_tune=14000 run=61
.step r_tune=14500 run=61
.step r_tune=15000 run=61
.step r_tune=11000 run=62
.step r_tune=11500 run=62
.step r_tune=12000 run=62
.step r_tune=12500 run=62
.step r_tune=13000 run=62
.step r_tune=13500 run=62
.step r_tune=14000 run=62
.step r_tune=14500 run=62
.step r_tune=15000 run=62
.step r_tune=11000 run=63
.step r_tune=11500 run=63
.step r_tune=12000 run=63
.step r_tune=12500 run=63
.step r_tune=13000 run=63
.step r_tune=13500 run=63
.step r_tune=14000 run=63
.step r_tune=14500 run=63
.step r_tune=15000 run=63
.step r_tune=11000 run=64
.step r_tune=11500 run=64
.step r_tune=12000 run=64
.step r_tune=12500 run=64
.step r_tune=13000 run=64
.step r_tune=13500 run=64
.step r_tune=14000 run=64
.step r_tune=14500 run=64
.step r_tune=15000 run=64
.step r_tune=11000 run=65
.step r_tune=11500 run=65
.step r_tune=12000 run=65
.step r_tune=12500 run=65
.step r_tune=13000 run=65
.step r_tune=13500 run=65
.step r_tune=14000 run=65
.step r_tune=14500 run=65
.step r_tune=15000 run=65
.step r_tune=11000 run=66
.step r_tune=11500 run=66
.step r_tune=12000 run=66
.step r_tune=12500 run=66
.step r_tune=13000 run=66
.step r_tune=13500 run=66
.step r_tune=14000 run=66
.step r_tune=14500 run=66
.step r_tune=15000 run=66
.step r_tune=11000 run=67
.step r_tune=11500 run=67
.step r_tune=12000 run=67
.step r_tune=12500 run=67
.step r_tune=13000 run=67
.step r_tune=13500 run=67
.step r_tune=14000 run=67
.step r_tune=14500 run=67
.step r_tune=15000 run=67
.step r_tune=11000 run=68
.step r_tune=11500 run=68
.step r_tune=12000 run=68
.step r_tune=12500 run=68
.step r_tune=13000 run=68
.step r_tune=13500 run=68
.step r_tune=14000 run=68
.step r_tune=14500 run=68
.step r_tune=15000 run=68
.step r_tune=11000 run=69
.step r_tune=11500 run=69
.step r_tune=12000 run=69
.step r_tune=12500 run=69
.step r_tune=13000 run=69
.step r_tune=13500 run=69
.step r_tune=14000 run=69
.step r_tune=14500 run=69
.step r_tune=15000 run=69
.step r_tune=11000 run=70
.step r_tune=11500 run=70
.step r_tune=12000 run=70
.step r_tune=12500 run=70
.step r_tune=13000 run=70
.step r_tune=13500 run=70
.step r_tune=14000 run=70
.step r_tune=14500 run=70
.step r_tune=15000 run=70
.step r_tune=11000 run=71
.step r_tune=11500 run=71
.step r_tune=12000 run=71
.step r_tune=12500 run=71
.step r_tune=13000 run=71
.step r_tune=13500 run=71
.step r_tune=14000 run=71
.step r_tune=14500 run=71
.step r_tune=15000 run=71
.step r_tune=11000 run=72
.step r_tune=11500 run=72
.step r_tune=12000 run=72
.step r_tune=12500 run=72
.step r_tune=13000 run=72
.step r_tune=13500 run=72
.step r_tune=14000 run=72
.step r_tune=14500 run=72
.step r_tune=15000 run=72
.step r_tune=11000 run=73
.step r_tune=11500 run=73
.step r_tune=12000 run=73
.step r_tune=12500 run=73
.step r_tune=13000 run=73
.step r_tune=13500 run=73
.step r_tune=14000 run=73
.step r_tune=14500 run=73
.step r_tune=15000 run=73
.step r_tune=11000 run=74
.step r_tune=11500 run=74
.step r_tune=12000 run=74
.step r_tune=12500 run=74
.step r_tune=13000 run=74
.step r_tune=13500 run=74
.step r_tune=14000 run=74
.step r_tune=14500 run=74
.step r_tune=15000 run=74
.step r_tune=11000 run=75
.step r_tune=11500 run=75
.step r_tune=12000 run=75
.step r_tune=12500 run=75
.step r_tune=13000 run=75
.step r_tune=13500 run=75
.step r_tune=14000 run=75
.step r_tune=14500 run=75
.step r_tune=15000 run=75
.step r_tune=11000 run=76
.step r_tune=11500 run=76
.step r_tune=12000 run=76
.step r_tune=12500 run=76
.step r_tune=13000 run=76
.step r_tune=13500 run=76
.step r_tune=14000 run=76
.step r_tune=14500 run=76
.step r_tune=15000 run=76
.step r_tune=11000 run=77
.step r_tune=11500 run=77
.step r_tune=12000 run=77
.step r_tune=12500 run=77
.step r_tune=13000 run=77
.step r_tune=13500 run=77
.step r_tune=14000 run=77
.step r_tune=14500 run=77
.step r_tune=15000 run=77
.step r_tune=11000 run=78
.step r_tune=11500 run=78
.step r_tune=12000 run=78
.step r_tune=12500 run=78
.step r_tune=13000 run=78
.step r_tune=13500 run=78
.step r_tune=14000 run=78
.step r_tune=14500 run=78
.step r_tune=15000 run=78
.step r_tune=11000 run=79
.step r_tune=11500 run=79
.step r_tune=12000 run=79
.step r_tune=12500 run=79
.step r_tune=13000 run=79
.step r_tune=13500 run=79
.step r_tune=14000 run=79
.step r_tune=14500 run=79
.step r_tune=15000 run=79
.step r_tune=11000 run=80
.step r_tune=11500 run=80
.step r_tune=12000 run=80
.step r_tune=12500 run=80
.step r_tune=13000 run=80
.step r_tune=13500 run=80
.step r_tune=14000 run=80
.step r_tune=14500 run=80
.step r_tune=15000 run=80
.step r_tune=11000 run=81
.step r_tune=11500 run=81
.step r_tune=12000 run=81
.step r_tune=12500 run=81
.step r_tune=13000 run=81
.step r_tune=13500 run=81
.step r_tune=14000 run=81
.step r_tune=14500 run=81
.step r_tune=15000 run=81
.step r_tune=11000 run=82
.step r_tune=11500 run=82
.step r_tune=12000 run=82
.step r_tune=12500 run=82
.step r_tune=13000 run=82
.step r_tune=13500 run=82
.step r_tune=14000 run=82
.step r_tune=14500 run=82
.step r_tune=15000 run=82
.step r_tune=11000 run=83
.step r_tune=11500 run=83
.step r_tune=12000 run=83
.step r_tune=12500 run=83
.step r_tune=13000 run=83
.step r_tune=13500 run=83
.step r_tune=14000 run=83
.step r_tune=14500 run=83
.step r_tune=15000 run=83
.step r_tune=11000 run=84
.step r_tune=11500 run=84
.step r_tune=12000 run=84
.step r_tune=12500 run=84
.step r_tune=13000 run=84
.step r_tune=13500 run=84
.step r_tune=14000 run=84
.step r_tune=14500 run=84
.step r_tune=15000 run=84
.step r_tune=11000 run=85
.step r_tune=11500 run=85
.step r_tune=12000 run=85
.step r_tune=12500 run=85
.step r_tune=13000 run=85
.step r_tune=13500 run=85
.step r_tune=14000 run=85
.step r_tune=14500 run=85
.step r_tune=15000 run=85
.step r_tune=11000 run=86
.step r_tune=11500 run=86
.step r_tune=12000 run=86
.step r_tune=12500 run=86
.step r_tune=13000 run=86
.step r_tune=13500 run=86
.step r_tune=14000 run=86
.step r_tune=14500 run=86
.step r_tune=15000 run=86
.step r_tune=11000 run=87
.step r_tune=11500 run=87
.step r_tune=12000 run=87
.step r_tune=12500 run=87
.step r_tune=13000 run=87
.step r_tune=13500 run=87
.step r_tune=14000 run=87
.step r_tune=14500 run=87
.step r_tune=15000 run=87
.step r_tune=11000 run=88
.step r_tune=11500 run=88
.step r_tune=12000 run=88
.step r_tune=12500 run=88
.step r_tune=13000 run=88
.step r_tune=13500 run=88
.step r_tune=14000 run=88
.step r_tune=14500 run=88
.step r_tune=15000 run=88
.step r_tune=11000 run=89
.step r_tune=11500 run=89
.step r_tune=12000 run=89
.step r_tune=12500 run=89
.step r_tune=13000 run=89
.step r_tune=13500 run=89
.step r_tune=14000 run=89
.step r_tune=14500 run=89
.step r_tune=15000 run=89
.step r_tune=11000 run=90
.step r_tune=11500 run=90
.step r_tune=12000 run=90
.step r_tune=12500 run=90
.step r_tune=13000 run=90
.step r_tune=13500 run=90
.step r_tune=14000 run=90
.step r_tune=14500 run=90
.step r_tune=15000 run=90
.step r_tune=11000 run=91
.step r_tune=11500 run=91
.step r_tune=12000 run=91
.step r_tune=12500 run=91
.step r_tune=13000 run=91
.step r_tune=13500 run=91
.step r_tune=14000 run=91
.step r_tune=14500 run=91
.step r_tune=15000 run=91
.step r_tune=11000 run=92
.step r_tune=11500 run=92
.step r_tune=12000 run=92
.step r_tune=12500 run=92
.step r_tune=13000 run=92
.step r_tune=13500 run=92
.step r_tune=14000 run=92
.step r_tune=14500 run=92
.step r_tune=15000 run=92
.step r_tune=11000 run=93
.step r_tune=11500 run=93
.step r_tune=12000 run=93
.step r_tune=12500 run=93
.step r_tune=13000 run=93
.step r_tune=13500 run=93
.step r_tune=14000 run=93
.step r_tune=14500 run=93
.step r_tune=15000 run=93
.step r_tune=11000 run=94
.step r_tune=11500 run=94
.step r_tune=12000 run=94
.step r_tune=12500 run=94
.step r_tune=13000 run=94
.step r_tune=13500 run=94
.step r_tune=14000 run=94
.step r_tune=14500 run=94
.step r_tune=15000 run=94
.step r_tune=11000 run=95
.step r_tune=11500 run=95
.step r_tune=12000 run=95
.step r_tune=12500 run=95
.step r_tune=13000 run=95
.step r_tune=13500 run=95
.step r_tune=14000 run=95
.step r_tune=14500 run=95
.step r_tune=15000 run=95
.step r_tune=11000 run=96
.step r_tune=11500 run=96
.step r_tune=12000 run=96
.step r_tune=12500 run=96
.step r_tune=13000 run=96
.step r_tune=13500 run=96
.step r_tune=14000 run=96
.step r_tune=14500 run=96
.step r_tune=15000 run=96
.step r_tune=11000 run=97
.step r_tune=11500 run=97
.step r_tune=12000 run=97
.step r_tune=12500 run=97
.step r_tune=13000 run=97
.step r_tune=13500 run=97
.step r_tune=14000 run=97
.step r_tune=14500 run=97
.step r_tune=15000 run=97
.step r_tune=11000 run=98
.step r_tune=11500 run=98
.step r_tune=12000 run=98
.step r_tune=12500 run=98
.step r_tune=13000 run=98
.step r_tune=13500 run=98
.step r_tune=14000 run=98
.step r_tune=14500 run=98
.step r_tune=15000 run=98
.step r_tune=11000 run=99
.step r_tune=11500 run=99
.step r_tune=12000 run=99
.step r_tune=12500 run=99
.step r_tune=13000 run=99
.step r_tune=13500 run=99
.step r_tune=14000 run=99
.step r_tune=14500 run=99
.step r_tune=15000 run=99
.step r_tune=11000 run=100
.step r_tune=11500 run=100
.step r_tune=12000 run=100
.step r_tune=12500 run=100
.step r_tune=13000 run=100
.step r_tune=13500 run=100
.step r_tune=14000 run=100
.step r_tune=14500 run=100
.step r_tune=15000 run=100
Total elapsed time: 154.350 seconds.

Files loaded:
C:\Users\cirov\OneDrive\Documents\MATERIAS\SRA\TP4.net
C:\Users\cirov\AppData\Local\LTspice\lib\sub\UniversalOpAmp2.lib

